/*--------------------------------*- C++ -*----------------------------------*\
| =========                 |                                                 |
| \\      /  F ield         | OpenFOAM: The Open Source CFD Toolbox           |
|  \\    /   O peration     | Version:  v1712                                 |
|   \\  /    A nd           | Web:      www.OpenFOAM.com                      |
|    \\/     M anipulation  |                                                 |
\*---------------------------------------------------------------------------*/
FoamFile
{
    version     2.0;
    format      binary;
    class       polyBoundaryMesh;
    arch        "LSB;label=32;scalar=64";
    location    "constant/polyMesh";
    object      boundary;
}
// * * * * * * * * * * * * * * * * * * * * * * * * * * * * * * * * * * * * * //

10
(
    Top
    {
        type            patch;
        nFaces          10;
        startFace       3660;
    }
    Bottom
    {
        type            patch;
        nFaces          0;
        startFace       3670;
    }
    htopWall
    {
        type            wall;
        inGroups        1(wall);
        nFaces          20;
        startFace       3670;
    }
    condWall
    {
        type            wall;
        inGroups        1(wall);
        nFaces          5;
        startFace       3690;
    }
    convWall
    {
        type            wall;
        inGroups        1(wall);
        nFaces          114;
        startFace       3695;
    }
    LSymm
    {
        type            symmetryPlane;
        inGroups        1(symmetryPlane);
        nFaces          0;
        startFace       3809;
    }
    frontAndBack
    {
        type            empty;
        inGroups        1(empty);
        nFaces          3814;
        startFace       3809;
    }
    defaultFaces
    {
        type            empty;
        inGroups        1(empty);
        nFaces          4;
        startFace       7623;
    }
    procBoundary3to1
    {
        type            processor;
        inGroups        1(processor);
        nFaces          15;
        startFace       7627;
        matchTolerance  0.0001;
        transform       unknown;
        myProcNo        3;
        neighbProcNo    1;
    }
    procBoundary3to2
    {
        type            processor;
        inGroups        1(processor);
        nFaces          140;
        startFace       7642;
        matchTolerance  0.0001;
        transform       unknown;
        myProcNo        3;
        neighbProcNo    2;
    }
)

// ************************************************************************* //
