/*--------------------------------*- C++ -*----------------------------------*\
| =========                 |                                                 |
| \\      /  F ield         | OpenFOAM: The Open Source CFD Toolbox           |
|  \\    /   O peration     | Version:  v1712                                 |
|   \\  /    A nd           | Web:      www.OpenFOAM.com                      |
|    \\/     M anipulation  |                                                 |
\*---------------------------------------------------------------------------*/
FoamFile
{
    version     2.0;
    format      binary;
    class       polyBoundaryMesh;
    arch        "LSB;label=32;scalar=64";
    location    "constant/polyMesh";
    object      boundary;
}
// * * * * * * * * * * * * * * * * * * * * * * * * * * * * * * * * * * * * * //

10
(
    Top
    {
        type            patch;
        nFaces          15;
        startFace       3926;
    }
    Bottom
    {
        type            patch;
        nFaces          0;
        startFace       3941;
    }
    htopWall
    {
        type            wall;
        inGroups        1(wall);
        nFaces          0;
        startFace       3941;
    }
    condWall
    {
        type            wall;
        inGroups        1(wall);
        nFaces          0;
        startFace       3941;
    }
    convWall
    {
        type            wall;
        inGroups        1(wall);
        nFaces          0;
        startFace       3941;
    }
    LSymm
    {
        type            symmetryPlane;
        inGroups        1(symmetryPlane);
        nFaces          138;
        startFace       3941;
    }
    frontAndBack
    {
        type            empty;
        inGroups        1(empty);
        nFaces          4080;
        startFace       4079;
    }
    defaultFaces
    {
        type            empty;
        inGroups        1(empty);
        nFaces          0;
        startFace       8159;
    }
    procBoundary2to0
    {
        type            processor;
        inGroups        1(processor);
        nFaces          15;
        startFace       8159;
        matchTolerance  0.0001;
        transform       unknown;
        myProcNo        2;
        neighbProcNo    0;
    }
    procBoundary2to3
    {
        type            processor;
        inGroups        1(processor);
        nFaces          140;
        startFace       8174;
        matchTolerance  0.0001;
        transform       unknown;
        myProcNo        2;
        neighbProcNo    3;
    }
)

// ************************************************************************* //
