/*--------------------------------*- C++ -*----------------------------------*\
| =========                 |                                                 |
| \\      /  F ield         | OpenFOAM: The Open Source CFD Toolbox           |
|  \\    /   O peration     | Version:  v1712                                 |
|   \\  /    A nd           | Web:      www.OpenFOAM.com                      |
|    \\/     M anipulation  |                                                 |
\*---------------------------------------------------------------------------*/
FoamFile
{
    version     2.0;
    format      binary;
    class       polyBoundaryMesh;
    arch        "LSB;label=32;scalar=64";
    location    "constant/polyMesh";
    object      boundary;
}
// * * * * * * * * * * * * * * * * * * * * * * * * * * * * * * * * * * * * * //

10
(
    Top
    {
        type            patch;
        nFaces          0;
        startFace       3665;
    }
    Bottom
    {
        type            patch;
        nFaces          14;
        startFace       3665;
    }
    htopWall
    {
        type            wall;
        inGroups        1(wall);
        nFaces          0;
        startFace       3679;
    }
    condWall
    {
        type            wall;
        inGroups        1(wall);
        nFaces          0;
        startFace       3679;
    }
    convWall
    {
        type            wall;
        inGroups        1(wall);
        nFaces          0;
        startFace       3679;
    }
    LSymm
    {
        type            symmetryPlane;
        inGroups        1(symmetryPlane);
        nFaces          137;
        startFace       3679;
    }
    frontAndBack
    {
        type            empty;
        inGroups        1(empty);
        nFaces          3816;
        startFace       3816;
    }
    defaultFaces
    {
        type            empty;
        inGroups        1(empty);
        nFaces          0;
        startFace       7632;
    }
    procBoundary0to1
    {
        type            processor;
        inGroups        1(processor);
        nFaces          136;
        startFace       7632;
        matchTolerance  0.0001;
        transform       unknown;
        myProcNo        0;
        neighbProcNo    1;
    }
    procBoundary0to2
    {
        type            processor;
        inGroups        1(processor);
        nFaces          15;
        startFace       7768;
        matchTolerance  0.0001;
        transform       unknown;
        myProcNo        0;
        neighbProcNo    2;
    }
)

// ************************************************************************* //
