/*--------------------------------*- C++ -*----------------------------------*\
  =========                 |
  \\      /  F ield         | OpenFOAM: The Open Source CFD Toolbox
   \\    /   O peration     | Website:  https://openfoam.org
    \\  /    A nd           | Version:  dev
     \\/     M anipulation  |
\*---------------------------------------------------------------------------*/
FoamFile
{
    version     2.0;
    format      ascii;
    class       dictionary;
    location    "system";
    object      decomposeParDict;
}
// * * * * * * * * * * * * * * * * * * * * * * * * * * * * * * * * * * * * * //

numberOfSubdomains 4;

constraints
{
    preservePatches
    {
        //- Keep owner and neighbour on same processor for faces in patches
        //  (only makes sense for cyclic patches. Not suitable for e.g.
        //   cyclicAMI since these are not coupled on the patch level. Use
        //   singleProcessorFaceSets for those)
        type    preservePatches;
        patches (".*");
    }
}
/*Added*/
method          simple;

simpleCoeffs
{
    n               (2 2 1);
    delta           0.001;
}

hierarchicalCoeffs
{
    n               (1 1 1);
    delta           0.001;
    order           xyz;
}

manualCoeffs
{
    dataFile        "";
}

distributed     no;

roots           ( );
// ************************************************************************* //
