/*--------------------------------*- C++ -*----------------------------------*\
| =========                 |                                                 |
| \\      /  F ield         | OpenFOAM: The Open Source CFD Toolbox           |
|  \\    /   O peration     | Version:  plus                                  |
|   \\  /    A nd           | Web:      www.OpenFOAM.com                      |
|    \\/     M anipulation  |                                                 |
\*---------------------------------------------------------------------------*/
FoamFile
{
    version     2.0;
    format      ascii;
    class       dictionary;
    location    "system";
    object      setFieldsDict;
}
// * * * * * * * * * * * * * * * * * * * * * * * * * * * * * * * * * * * * * //

defaultFieldValues
(
    volScalarFieldValue alpha.solid 0
    volScalarFieldValue T           990
    //volScalarField p_rgh    101325
    //volScalarField C        6.0
    //volVectorField U        uniform(0 0 0)
);

regions
(
  boxToCell
   {
       box (0.0 0.0 0.0)  (0.1 0.525 0.005);

      fieldValues
        (
            volScalarFieldValue alpha.solid 1
            volScalarFieldValue T           500
        );
    }
);


// ************************************************************************* //
